PV_Scenarios/PV_combined/scenario_1_combined/PV_combined90per.txt
New PVSystem.PV_1 phases=1 bus1=G2000SN8800_N274200_sec_2.3 kV=0.24 kVA=4.32 irradiance=1 Pmpp=3.6 %cutin=0.1 %cutout=0.1
New PVSystem.PV_2 phases=1 bus1=G2000SO1800_N274227_sec_4.3 kV=0.24 kVA=6 irradiance=1 Pmpp=5 %cutin=0.1 %cutout=0.1
New PVSystem.PV_3 phases=1 bus1=G2000UI5400_N283699_sec_3.3 kV=0.24 kVA=3.84 irradiance=1 Pmpp=3.2 %cutin=0.1 %cutout=0.1
New PVSystem.PV_4 phases=1 bus1=G2000UK1100_N283753_sec_5.3 kV=0.24 kVA=9 irradiance=1 Pmpp=7.5 %cutin=0.1 %cutout=0.1
New PVSystem.PV_5 phases=1 bus1=G2000VI6200_N283684_sec_9.2 kV=0.24 kVA=8.64 irradiance=1 Pmpp=7.2 %cutin=0.1 %cutout=0.1
New PVSystem.PV_6 phases=1 bus1=G2000VM6800_N283833_sec_2.2 kV=0.24 kVA=10.56 irradiance=1 Pmpp=8.8 %cutin=0.1 %cutout=0.1
New PVSystem.PV_7 phases=1 bus1=G2000XE9500_N283544_sec_3.3 kV=0.24 kVA=3.12 irradiance=1 Pmpp=2.6 %cutin=0.1 %cutout=0.1
New PVSystem.PV_8 phases=1 bus1=G2000XK5800_N283764_sec_2.3 kV=0.24 kVA=3.36 irradiance=1 Pmpp=2.8 %cutin=0.1 %cutout=0.1
New PVSystem.PV_9 phases=1 bus1=G2001RM3600_N274547_sec_2.2 kV=0.24 kVA=8.3339 irradiance=1 Pmpp=6.9449 %cutin=0.1 %cutout=0.1
New PVSystem.PV_10 phases=1 bus1=G2001SB8200_N274258_sec_4.3 kV=0.24 kVA=5.04 irradiance=1 Pmpp=4.2 %cutin=0.1 %cutout=0.1
New PVSystem.PV_11 phases=1 bus1=G2001TF3200_N284090_sec_1.3 kV=0.24 kVA=8.52 irradiance=1 Pmpp=7.1 %cutin=0.1 %cutout=0.1
New PVSystem.PV_12 phases=1 bus1=G2001UB2100_N283965_sec_8.3 kV=0.24 kVA=4.2 irradiance=1 Pmpp=3.5 %cutin=0.1 %cutout=0.1
New PVSystem.PV_13 phases=1 bus1=G2001UD9000_N283927_sec_6.3 kV=0.24 kVA=5.16 irradiance=1 Pmpp=4.3 %cutin=0.1 %cutout=0.1
New PVSystem.PV_14 phases=1 bus1=G2001VA3800_N283914_sec_8.3 kV=0.24 kVA=3.84 irradiance=1 Pmpp=3.2 %cutin=0.1 %cutout=0.1
New PVSystem.PV_15 phases=1 bus1=G2001VD8000_N283989_sec_2.3 kV=0.24 kVA=3.36 irradiance=1 Pmpp=2.8 %cutin=0.1 %cutout=0.1
New PVSystem.PV_16 phases=1 bus1=G2001WB3100_N283924_sec_4.3 kV=0.24 kVA=4.8837 irradiance=1 Pmpp=4.0697 %cutin=0.1 %cutout=0.1
New PVSystem.PV_17 phases=1 bus1=G2001WB8800_N283948_sec_4.3 kV=0.24 kVA=5.4 irradiance=1 Pmpp=4.5 %cutin=0.1 %cutout=0.1
New PVSystem.PV_18 phases=1 bus1=G2001XH0700_N284168_sec_4.3 kV=0.24 kVA=5.04 irradiance=1 Pmpp=4.2 %cutin=0.1 %cutout=0.1
New PVSystem.PV_19 phases=1 bus1=G2100AE9900_N283556_sec_7.3 kV=0.24 kVA=3.36 irradiance=1 Pmpp=2.8 %cutin=0.1 %cutout=0.1
New PVSystem.PV_20 phases=1 bus1=G2100AG2100_N283585_sec_4.3 kV=0.24 kVA=2.76 irradiance=1 Pmpp=2.3 %cutin=0.1 %cutout=0.1
New PVSystem.PV_21 phases=1 bus1=G2100BH3900_N283665_sec_4.3 kV=0.24 kVA=3.895 irradiance=1 Pmpp=3.2458 %cutin=0.1 %cutout=0.1
New PVSystem.PV_22 phases=1 bus1=G2100CI1500_N283687_sec_5.2 kV=0.24 kVA=6.12 irradiance=1 Pmpp=5.1 %cutin=0.1 %cutout=0.1
New PVSystem.PV_23 phases=1 bus1=G2100CI4600_N283694_sec_2.2 kV=0.24 kVA=4.7724 irradiance=1 Pmpp=3.977 %cutin=0.1 %cutout=0.1
New PVSystem.PV_24 phases=1 bus1=G2100CN4000_N283847_sec_5.3 kV=0.24 kVA=0.96 irradiance=1 Pmpp=0.8 %cutin=0.1 %cutout=0.1
New PVSystem.PV_25 phases=1 bus1=G2100DG1300_N283601_sec_12.3 kV=0.24 kVA=3.24 irradiance=1 Pmpp=2.7 %cutin=0.1 %cutout=0.1
New PVSystem.PV_26 phases=1 bus1=G2100DL5900_N283794_sec_1.3 kV=0.24 kVA=4.08 irradiance=1 Pmpp=3.4 %cutin=0.1 %cutout=0.1
New PVSystem.PV_27 phases=1 bus1=G2100DL9600_N1396879_sec_1.3 kV=0.24 kVA=3.12 irradiance=1 Pmpp=2.6 %cutin=0.1 %cutout=0.1
New PVSystem.PV_28 phases=1 bus1=G2100DN3000_N283838_sec_15.3 kV=0.24 kVA=1.2 irradiance=1 Pmpp=1 %cutin=0.1 %cutout=0.1
New PVSystem.PV_29 phases=1 bus1=G2100DN4800_N283861_sec_42.3 kV=0.24 kVA=3.36 irradiance=1 Pmpp=2.8 %cutin=0.1 %cutout=0.1
New PVSystem.PV_30 phases=1 bus1=G2100EM2500_N292390_sec_16.2 kV=0.24 kVA=10.08 irradiance=1 Pmpp=8.4 %cutin=0.1 %cutout=0.1
New PVSystem.PV_31 phases=1 bus1=G2100EN2200_N292457_sec_3.3 kV=0.24 kVA=2.04 irradiance=1 Pmpp=1.7 %cutin=0.1 %cutout=0.1
New PVSystem.PV_32 phases=1 bus1=G2100EN2200_N292457_sec_10.3 kV=0.24 kVA=6.72 irradiance=1 Pmpp=5.6 %cutin=0.1 %cutout=0.1
New PVSystem.PV_33 phases=1 bus1=G2100EN2200_N292457_sec_27.3 kV=0.24 kVA=1.92 irradiance=1 Pmpp=1.6 %cutin=0.1 %cutout=0.1
New PVSystem.PV_34 phases=1 bus1=G2100EO1300_N292510_sec_1.3 kV=0.24 kVA=1.44 irradiance=1 Pmpp=1.2 %cutin=0.1 %cutout=0.1
New PVSystem.PV_35 phases=3 conn = delta bus1=G2100FE2600_N292234_sec_17.1.2.3 kV=0.48 kVA=14.64 irradiance=1 Pmpp=12.2 %cutin=0.1 %cutout=0.1
New PVSystem.PV_36 phases=3 conn = delta bus1=G2100FJ3800_N292380_sec_1.1.2.3 kV=0.48 kVA=6.84 irradiance=1 Pmpp=5.7 %cutin=0.1 %cutout=0.1
New PVSystem.PV_37 phases=1 bus1=G2100FO1600_N292502_sec_7.3 kV=0.24 kVA=2.16 irradiance=1 Pmpp=1.8 %cutin=0.1 %cutout=0.1
New PVSystem.PV_38 phases=3 conn = delta bus1=G2100GM6700_N292446_sec_2.1.2.3 kV=0.48 kVA=11.04 irradiance=1 Pmpp=9.2 %cutin=0.1 %cutout=0.1
New PVSystem.PV_39 phases=1 bus1=G2100GO6100_N292504_sec_8.1 kV=0.24 kVA=5.4 irradiance=1 Pmpp=4.5 %cutin=0.1 %cutout=0.1
New PVSystem.PV_40 phases=1 bus1=G2100HM9900_N292433_sec_5.3 kV=0.24 kVA=5.16 irradiance=1 Pmpp=4.3 %cutin=0.1 %cutout=0.1
New PVSystem.PV_41 phases=1 bus1=G2100HN5600_N292453_sec_33.3 kV=0.24 kVA=2.04 irradiance=1 Pmpp=1.7 %cutin=0.1 %cutout=0.1
New PVSystem.PV_42 phases=1 bus1=G2100HN5600_N292453_sec_52.3 kV=0.24 kVA=0.96 irradiance=1 Pmpp=0.8 %cutin=0.1 %cutout=0.1
New PVSystem.PV_43 phases=1 bus1=G2100IL1000_N292412_sec_26.3 kV=0.24 kVA=0.48 irradiance=1 Pmpp=0.4 %cutin=0.1 %cutout=0.1
New PVSystem.PV_44 phases=1 bus1=G2100IN7700_N292438_sec_7.3 kV=0.24 kVA=2.52 irradiance=1 Pmpp=2.1 %cutin=0.1 %cutout=0.1
New PVSystem.PV_45 phases=1 bus1=G2100IN7700_N292438_sec_13.3 kV=0.24 kVA=1.44 irradiance=1 Pmpp=1.2 %cutin=0.1 %cutout=0.1
New PVSystem.PV_46 phases=1 bus1=G2100QM2700_N300529_sec_3.2 kV=0.24 kVA=10.56 irradiance=1 Pmpp=8.8 %cutin=0.1 %cutout=0.1
New PVSystem.PV_47 phases=1 bus1=G2100QO6100_N300566_sec_3.2 kV=0.24 kVA=4.92 irradiance=1 Pmpp=4.1 %cutin=0.1 %cutout=0.1
New PVSystem.PV_48 phases=1 bus1=G2100QP9600_N300587_sec_2.2 kV=0.24 kVA=5.16 irradiance=1 Pmpp=4.3 %cutin=0.1 %cutout=0.1
New PVSystem.PV_49 phases=1 bus1=G2100RL8500_N312282_sec_1.2 kV=0.24 kVA=3.36 irradiance=1 Pmpp=2.8 %cutin=0.1 %cutout=0.1
New PVSystem.PV_50 phases=1 bus1=G2100RM5200_N312343_sec_6.3 kV=0.24 kVA=5.16 irradiance=1 Pmpp=4.3 %cutin=0.1 %cutout=0.1
New PVSystem.PV_51 phases=1 bus1=G2100RN2900_N283836_sec_3.1 kV=0.24 kVA=3.96 irradiance=1 Pmpp=3.3 %cutin=0.1 %cutout=0.1
New PVSystem.PV_52 phases=1 bus1=G2100RN7000_N300533_sec_6.3 kV=0.24 kVA=3.96 irradiance=1 Pmpp=3.3 %cutin=0.1 %cutout=0.1
New PVSystem.PV_53 phases=1 bus1=G2100RO0400_N300576_sec_8.3 kV=0.24 kVA=4.44 irradiance=1 Pmpp=3.7 %cutin=0.1 %cutout=0.1
New PVSystem.PV_54 phases=1 bus1=G2101CB7700_N283923_sec_4.1 kV=0.24 kVA=6.84 irradiance=1 Pmpp=5.7 %cutin=0.1 %cutout=0.1
New PVSystem.PV_55 phases=1 bus1=G2101DC0100_N283946_sec_3.1 kV=0.24 kVA=5.28 irradiance=1 Pmpp=4.4 %cutin=0.1 %cutout=0.1
New PVSystem.PV_56 phases=1 bus1=G2101DC3900_N283999_sec_3.2 kV=0.24 kVA=4.44 irradiance=1 Pmpp=3.7 %cutin=0.1 %cutout=0.1
New PVSystem.PV_57 phases=1 bus1=G2101DD6700_N284032_sec_2.1 kV=0.24 kVA=4.2 irradiance=1 Pmpp=3.5 %cutin=0.1 %cutout=0.1
New PVSystem.PV_58 phases=1 bus1=G2101FC8400_N292612_sec_18.2 kV=0.24 kVA=6.12 irradiance=1 Pmpp=5.1 %cutin=0.1 %cutout=0.1
New PVSystem.PV_59 phases=1 bus1=G2101GC3200_N292623_sec_21.1 kV=0.24 kVA=8.0619 irradiance=1 Pmpp=6.7183 %cutin=0.1 %cutout=0.1
New PVSystem.PV_60 phases=1 bus1=G2101GD1300_N292637_sec_12.1 kV=0.24 kVA=4.08 irradiance=1 Pmpp=3.4 %cutin=0.1 %cutout=0.1
New PVSystem.PV_61 phases=1 bus1=G2101GD1300_N292637_sec_15.1 kV=0.24 kVA=3 irradiance=1 Pmpp=2.5 %cutin=0.1 %cutout=0.1
New PVSystem.PV_62 phases=1 bus1=G2101GD6200_N292642_sec_6.1 kV=0.24 kVA=2.04 irradiance=1 Pmpp=1.7 %cutin=0.1 %cutout=0.1
New PVSystem.PV_63 phases=1 bus1=G2101GD6200_N292642_sec_18.1 kV=0.24 kVA=2.16 irradiance=1 Pmpp=1.8 %cutin=0.1 %cutout=0.1
New PVSystem.PV_64 phases=1 bus1=G2101HB3800_N292598_sec_3.1 kV=0.24 kVA=1.2 irradiance=1 Pmpp=1 %cutin=0.1 %cutout=0.1
New PVSystem.PV_65 phases=1 bus1=G2101HD1100_N292645_sec_2.1 kV=0.24 kVA=3.12 irradiance=1 Pmpp=2.6 %cutin=0.1 %cutout=0.1
New PVSystem.PV_66 phases=1 bus1=G2101KA0900_N300672_sec_14.1 kV=0.24 kVA=2.4 irradiance=1 Pmpp=2 %cutin=0.1 %cutout=0.1
New PVSystem.PV_67 phases=1 bus1=G2101KA3900_N300679_sec_14.1 kV=0.24 kVA=1.8 irradiance=1 Pmpp=1.5 %cutin=0.1 %cutout=0.1
New PVSystem.PV_68 phases=1 bus1=G2101KB0200_N300705_sec_1.3 kV=0.24 kVA=4.4829 irradiance=1 Pmpp=3.7358 %cutin=0.1 %cutout=0.1
New PVSystem.PV_69 phases=1 bus1=G2101OA2300_N300690_sec_3.3 kV=0.24 kVA=3.72 irradiance=1 Pmpp=3.1 %cutin=0.1 %cutout=0.1
New PVSystem.PV_70 phases=1 bus1=G2101OA5600_N300661_sec_6.1 kV=0.24 kVA=2.88 irradiance=1 Pmpp=2.4 %cutin=0.1 %cutout=0.1
New PVSystem.PV_71 phases=1 bus1=G2101OB2900_N300670_sec_13.3 kV=0.24 kVA=5.04 irradiance=1 Pmpp=4.2 %cutin=0.1 %cutout=0.1
New PVSystem.PV_72 phases=1 bus1=G2101PA3400_N300633_sec_2.1 kV=0.24 kVA=7.56 irradiance=1 Pmpp=6.3 %cutin=0.1 %cutout=0.1
New PVSystem.PV_73 phases=1 bus1=G2101PB5100_N300681_sec_6.1 kV=0.24 kVA=4.44 irradiance=1 Pmpp=3.7 %cutin=0.1 %cutout=0.1
New PVSystem.PV_74 phases=1 bus1=G2101PC3200_N300744_sec_6.3 kV=0.24 kVA=3 irradiance=1 Pmpp=2.5 %cutin=0.1 %cutout=0.1
New PVSystem.PV_75 phases=1 bus1=G2101QC3700_N300767_sec_3.3 kV=0.24 kVA=3.24 irradiance=1 Pmpp=2.7 %cutin=0.1 %cutout=0.1
New PVSystem.PV_76 phases=1 bus1=G2101QC6000_N300736_sec_5.3 kV=0.24 kVA=4.08 irradiance=1 Pmpp=3.4 %cutin=0.1 %cutout=0.1
New PVSystem.PV_77 phases=1 bus1=G2101SB1800_N312602_sec_7.1 kV=0.24 kVA=6.6125 irradiance=1 Pmpp=5.5105 %cutin=0.1 %cutout=0.1
New PVSystem.PV_78 phases=1 bus1=G2102CB9700_N284330_sec_2.1 kV=0.24 kVA=0 irradiance=1 Pmpp=0 %cutin=0.1 %cutout=0.1
New PVSystem.PV_79 phases=1 bus1=G2000UL7700_N283791_sec_1.2 kV=0.24 kVA=5.3083 irradiance=1 Pmpp=4.4236 %cutin=0.1 %cutout=0.1
New PVSystem.PV_80 phases=1 bus1=G2000VH9100_N283615_sec_1.3 kV=0.24 kVA=1.2 irradiance=1 Pmpp=1 %cutin=0.1 %cutout=0.1
New PVSystem.PV_81 phases=1 bus1=G2000WM6400_N283824_sec_4.3 kV=0.24 kVA=5.4 irradiance=1 Pmpp=4.5 %cutin=0.1 %cutout=0.1
New PVSystem.PV_82 phases=1 bus1=G2000XG5800_N283612_sec_1.3 kV=0.24 kVA=2.64 irradiance=1 Pmpp=2.2 %cutin=0.1 %cutout=0.1
New PVSystem.PV_83 phases=1 bus1=G2000XN7400_N283885_sec_1.3 kV=0.24 kVA=3 irradiance=1 Pmpp=2.5 %cutin=0.1 %cutout=0.1
New PVSystem.PV_84 phases=1 bus1=G2001QJ8800_N274458_sec_2.2 kV=0.24 kVA=4.4638 irradiance=1 Pmpp=3.7198 %cutin=0.1 %cutout=0.1
New PVSystem.PV_85 phases=1 bus1=G2001QO2100_N274563_sec_1.2 kV=0.24 kVA=12.6 irradiance=1 Pmpp=10.5 %cutin=0.1 %cutout=0.1
New PVSystem.PV_86 phases=1 bus1=G2001RH4100_N274394_sec_1.2 kV=0.24 kVA=0.12 irradiance=1 Pmpp=0.1 %cutin=0.1 %cutout=0.1
New PVSystem.PV_87 phases=1 bus1=G2001RL0800_N274521_sec_3.2 kV=0.24 kVA=0.84 irradiance=1 Pmpp=0.7 %cutin=0.1 %cutout=0.1
New PVSystem.PV_88 phases=1 bus1=G2001SA1700_N274258_sec_4.3 kV=0.24 kVA=2.88 irradiance=1 Pmpp=2.4 %cutin=0.1 %cutout=0.1
New PVSystem.PV_89 phases=1 bus1=G2001VD4400_N284006_sec_7.3 kV=0.24 kVA=3.24 irradiance=1 Pmpp=2.7 %cutin=0.1 %cutout=0.1
New PVSystem.PV_90 phases=1 bus1=G2001VF4000_N284076_sec_2.3 kV=0.24 kVA=1.44 irradiance=1 Pmpp=1.2 %cutin=0.1 %cutout=0.1
New PVSystem.PV_91 phases=1 bus1=G2001VI5200_N284181_sec_5.2 kV=0.24 kVA=8.0668 irradiance=1 Pmpp=6.7223 %cutin=0.1 %cutout=0.1
New PVSystem.PV_92 phases=1 bus1=G2001VK4000_N284221_sec_4.2 kV=0.24 kVA=6.2849 irradiance=1 Pmpp=5.2374 %cutin=0.1 %cutout=0.1
New PVSystem.PV_93 phases=1 bus1=G2001WA2400_N283917_sec_5.3 kV=0.24 kVA=5.16 irradiance=1 Pmpp=4.3 %cutin=0.1 %cutout=0.1
New PVSystem.PV_94 phases=1 bus1=G2001WB9000_N283924_sec_6.3 kV=0.24 kVA=5.28 irradiance=1 Pmpp=4.4 %cutin=0.1 %cutout=0.1
New PVSystem.PV_95 phases=1 bus1=G2001WF7000_N284116_sec_1.3 kV=0.24 kVA=7.08 irradiance=1 Pmpp=5.9 %cutin=0.1 %cutout=0.1
New PVSystem.PV_96 phases=1 bus1=G2001XE2600_N284069_sec_6.1 kV=0.24 kVA=5.4 irradiance=1 Pmpp=4.5 %cutin=0.1 %cutout=0.1
New PVSystem.PV_97 phases=1 bus1=G2001XE7600_N284065_sec_4.1 kV=0.24 kVA=0.96 irradiance=1 Pmpp=0.8 %cutin=0.1 %cutout=0.1
New PVSystem.PV_98 phases=1 bus1=G2100AL3200_N283770_sec_2.1 kV=0.24 kVA=7.56 irradiance=1 Pmpp=6.3 %cutin=0.1 %cutout=0.1
New PVSystem.PV_99 phases=1 bus1=G2100AL3200_N283770_sec_3.1 kV=0.24 kVA=3.84 irradiance=1 Pmpp=3.2 %cutin=0.1 %cutout=0.1
New PVSystem.PV_100 phases=1 bus1=G2100CK4000_N283780_sec_1.2 kV=0.24 kVA=4.32 irradiance=1 Pmpp=3.6 %cutin=0.1 %cutout=0.1
New PVSystem.PV_101 phases=1 bus1=G2100DG6300_N283589_sec_9.3 kV=0.24 kVA=3.96 irradiance=1 Pmpp=3.3 %cutin=0.1 %cutout=0.1
New PVSystem.PV_102 phases=1 bus1=G2100DH9500_N292300_sec_6.3 kV=0.24 kVA=7.68 irradiance=1 Pmpp=6.4 %cutin=0.1 %cutout=0.1
New PVSystem.PV_103 phases=1 bus1=G2100EN8600_N292479_sec_1.3 kV=0.24 kVA=1.32 irradiance=1 Pmpp=1.1 %cutin=0.1 %cutout=0.1
New PVSystem.PV_104 phases=1 bus1=G2100EO2100_N292498_sec_15.3 kV=0.24 kVA=2.16 irradiance=1 Pmpp=1.8 %cutin=0.1 %cutout=0.1
New PVSystem.PV_105 phases=3 conn = delta bus1=G2100FF2000_N292242_sec_1.1.2.3 kV=0.48 kVA=78 irradiance=1 Pmpp=65 %cutin=0.1 %cutout=0.1
New PVSystem.PV_106 phases=3 conn = delta bus1=G2100GI5400_N292325_sec_5.1.2.3 kV=0.48 kVA=6.48 irradiance=1 Pmpp=5.4 %cutin=0.1 %cutout=0.1
New PVSystem.PV_107 phases=3 conn = delta bus1=G2100GM5300_N292446_sec_5.1.2.3 kV=0.48 kVA=21.24 irradiance=1 Pmpp=17.7 %cutin=0.1 %cutout=0.1
New PVSystem.PV_108 phases=1 bus1=G2100GN0400_N292471_sec_9.1 kV=0.24 kVA=1.08 irradiance=1 Pmpp=0.9 %cutin=0.1 %cutout=0.1
New PVSystem.PV_109 phases=1 bus1=G2100GN2400_N292466_sec_2.1 kV=0.24 kVA=4.44 irradiance=1 Pmpp=3.7 %cutin=0.1 %cutout=0.1
New PVSystem.PV_110 phases=1 bus1=G2100HN5600_N292453_sec_21.3 kV=0.24 kVA=2.64 irradiance=1 Pmpp=2.2 %cutin=0.1 %cutout=0.1
New PVSystem.PV_111 phases=1 bus1=G2100HN5600_N292453_sec_41.3 kV=0.24 kVA=3.72 irradiance=1 Pmpp=3.1 %cutin=0.1 %cutout=0.1
New PVSystem.PV_112 phases=1 bus1=G2100IL1000_N292412_sec_2.3 kV=0.24 kVA=0.48 irradiance=1 Pmpp=0.4 %cutin=0.1 %cutout=0.1
New PVSystem.PV_113 phases=1 bus1=G2100IL1000_N292412_sec_14.3 kV=0.24 kVA=1.44 irradiance=1 Pmpp=1.2 %cutin=0.1 %cutout=0.1
New PVSystem.PV_114 phases=1 bus1=G2100IL1000_N292412_sec_20.3 kV=0.24 kVA=2.88 irradiance=1 Pmpp=2.4 %cutin=0.1 %cutout=0.1
New PVSystem.PV_115 phases=1 bus1=G2100IL1000_N292412_sec_41.3 kV=0.24 kVA=3.36 irradiance=1 Pmpp=2.8 %cutin=0.1 %cutout=0.1
New PVSystem.PV_116 phases=1 bus1=G2100IL1000_N292412_sec_44.3 kV=0.24 kVA=0.48 irradiance=1 Pmpp=0.4 %cutin=0.1 %cutout=0.1
New PVSystem.PV_117 phases=1 bus1=G2100IM6700_N292430_sec_18.3 kV=0.24 kVA=3.12 irradiance=1 Pmpp=2.6 %cutin=0.1 %cutout=0.1
New PVSystem.PV_118 phases=1 bus1=G2100IN7700_N292438_sec_16.3 kV=0.24 kVA=3.24 irradiance=1 Pmpp=2.7 %cutin=0.1 %cutout=0.1
New PVSystem.PV_119 phases=1 bus1=G2100IN7700_N292438_sec_36.3 kV=0.24 kVA=2.88 irradiance=1 Pmpp=2.4 %cutin=0.1 %cutout=0.1
New PVSystem.PV_120 phases=1 bus1=G2100PN6500_N300562_sec_1.1 kV=0.24 kVA=3.84 irradiance=1 Pmpp=3.2 %cutin=0.1 %cutout=0.1
New PVSystem.PV_121 phases=1 bus1=G2100PN6500_N300562_sec_3.1 kV=0.24 kVA=6.1975 irradiance=1 Pmpp=5.1646 %cutin=0.1 %cutout=0.1
New PVSystem.PV_122 phases=1 bus1=G2100QN1500_N300555_sec_3.2 kV=0.24 kVA=5.28 irradiance=1 Pmpp=4.4 %cutin=0.1 %cutout=0.1
New PVSystem.PV_123 phases=1 bus1=G2100QP9600_N300587_sec_5.2 kV=0.24 kVA=6.8626 irradiance=1 Pmpp=5.7188 %cutin=0.1 %cutout=0.1
New PVSystem.PV_124 phases=1 bus1=G2100SL6900_N312340_sec_1.2 kV=0.24 kVA=3.12 irradiance=1 Pmpp=2.6 %cutin=0.1 %cutout=0.1
New PVSystem.PV_125 phases=1 bus1=G2100TO1000_N312424_sec_11.2 kV=0.24 kVA=11.28 irradiance=1 Pmpp=9.4 %cutin=0.1 %cutout=0.1
New PVSystem.PV_126 phases=1 bus1=G2101BB3500_N283890_sec_3.1 kV=0.24 kVA=11.8827 irradiance=1 Pmpp=9.9023 %cutin=0.1 %cutout=0.1
New PVSystem.PV_127 phases=1 bus1=G2101BD1200_N284013_sec_1.2 kV=0.24 kVA=5.04 irradiance=1 Pmpp=4.2 %cutin=0.1 %cutout=0.1
New PVSystem.PV_128 phases=1 bus1=G2101BI4200_N284183_sec_4.3 kV=0.24 kVA=3.24 irradiance=1 Pmpp=2.7 %cutin=0.1 %cutout=0.1
New PVSystem.PV_129 phases=1 bus1=G2101CB7700_N283923_sec_1.1 kV=0.24 kVA=5.52 irradiance=1 Pmpp=4.6 %cutin=0.1 %cutout=0.1
New PVSystem.PV_130 phases=1 bus1=G2101CC0600_N283951_sec_2.3 kV=0.24 kVA=3.36 irradiance=1 Pmpp=2.8 %cutin=0.1 %cutout=0.1
New PVSystem.PV_131 phases=1 bus1=G2101CC5900_N283981_sec_2.2 kV=0.24 kVA=0.36 irradiance=1 Pmpp=0.3 %cutin=0.1 %cutout=0.1
New PVSystem.PV_132 phases=1 bus1=G2101DI0000_N284130_sec_2.3 kV=0.24 kVA=5.76 irradiance=1 Pmpp=4.8 %cutin=0.1 %cutout=0.1
New PVSystem.PV_133 phases=1 bus1=G2101EC4900_N292649_sec_1.1 kV=0.24 kVA=4.68 irradiance=1 Pmpp=3.9 %cutin=0.1 %cutout=0.1
New PVSystem.PV_134 phases=1 bus1=G2101EC8400_N292647_sec_3.1 kV=0.24 kVA=5.88 irradiance=1 Pmpp=4.9 %cutin=0.1 %cutout=0.1
New PVSystem.PV_135 phases=1 bus1=G2101FC9500_N292618_sec_6.1 kV=0.24 kVA=2.64 irradiance=1 Pmpp=2.2 %cutin=0.1 %cutout=0.1
New PVSystem.PV_136 phases=1 bus1=G2101GB6700_N292603_sec_7.1 kV=0.24 kVA=6.96 irradiance=1 Pmpp=5.8 %cutin=0.1 %cutout=0.1
New PVSystem.PV_137 phases=1 bus1=G2101GC9700_N292633_sec_22.1 kV=0.24 kVA=2.4248 irradiance=1 Pmpp=2.0206 %cutin=0.1 %cutout=0.1
New PVSystem.PV_138 phases=1 bus1=G2101GD6200_N292642_sec_10.1 kV=0.24 kVA=3.48 irradiance=1 Pmpp=2.9 %cutin=0.1 %cutout=0.1
New PVSystem.PV_139 phases=1 bus1=G2101GD6200_N292642_sec_13.1 kV=0.24 kVA=3.12 irradiance=1 Pmpp=2.6 %cutin=0.1 %cutout=0.1
New PVSystem.PV_140 phases=1 bus1=G2101HB3500_N292585_sec_4.1 kV=0.24 kVA=3.36 irradiance=1 Pmpp=2.8 %cutin=0.1 %cutout=0.1
New PVSystem.PV_141 phases=1 bus1=G2101HD3500_N292652_sec_5.1 kV=0.24 kVA=3.6 irradiance=1 Pmpp=3 %cutin=0.1 %cutout=0.1
New PVSystem.PV_142 phases=1 bus1=G2101HD3500_N292652_sec_12.1 kV=0.24 kVA=3.6 irradiance=1 Pmpp=3 %cutin=0.1 %cutout=0.1
New PVSystem.PV_143 phases=1 bus1=G2101KA2300_N300631_sec_16.1 kV=0.24 kVA=18.4955 irradiance=1 Pmpp=15.4129 %cutin=0.1 %cutout=0.1
New PVSystem.PV_144 phases=1 bus1=G2101KA6200_N300623_sec_6.1 kV=0.24 kVA=3.12 irradiance=1 Pmpp=2.6 %cutin=0.1 %cutout=0.1
New PVSystem.PV_145 phases=1 bus1=G2101OA1800_N300620_sec_1.3 kV=0.24 kVA=6.36 irradiance=1 Pmpp=5.3 %cutin=0.1 %cutout=0.1
New PVSystem.PV_146 phases=1 bus1=G2101OB2900_N300670_sec_9.3 kV=0.24 kVA=2.28 irradiance=1 Pmpp=1.9 %cutin=0.1 %cutout=0.1
New PVSystem.PV_147 phases=1 bus1=G2101PB2500_N300719_sec_2.3 kV=0.24 kVA=3.36 irradiance=1 Pmpp=2.8 %cutin=0.1 %cutout=0.1
New PVSystem.PV_148 phases=1 bus1=G2101PB3000_N300676_sec_1.1 kV=0.24 kVA=4.44 irradiance=1 Pmpp=3.7 %cutin=0.1 %cutout=0.1
New PVSystem.PV_149 phases=1 bus1=G2101PC3200_N300744_sec_4.3 kV=0.24 kVA=5.52 irradiance=1 Pmpp=4.6 %cutin=0.1 %cutout=0.1
New PVSystem.PV_150 phases=1 bus1=G2101PC8800_N300762_sec_4.3 kV=0.24 kVA=5.76 irradiance=1 Pmpp=4.8 %cutin=0.1 %cutout=0.1
New PVSystem.PV_151 phases=1 bus1=G2101RC6500_N312606_sec_4.1 kV=0.24 kVA=4.44 irradiance=1 Pmpp=3.7 %cutin=0.1 %cutout=0.1
New PVSystem.PV_152 phases=1 bus1=G2101TA3200_N312486_sec_6.2 kV=0.24 kVA=7.2315 irradiance=1 Pmpp=6.0263 %cutin=0.1 %cutout=0.1
New PVSystem.PV_153 phases=1 bus1=G2102AC8400_N284339_sec_1.1 kV=0.24 kVA=9.12 irradiance=1 Pmpp=7.6 %cutin=0.1 %cutout=0.1
New PVSystem.PV_154 phases=1 bus1=G2102AG6500_N284433_sec_4.1 kV=0.24 kVA=8.6037 irradiance=1 Pmpp=7.1698 %cutin=0.1 %cutout=0.1
New PVSystem.PV_155 phases=1 bus1=G2102DD3500_N284350_sec_2.1 kV=0.24 kVA=9.24 irradiance=1 Pmpp=7.7 %cutin=0.1 %cutout=0.1
New PVSystem.PV_156 phases=1 bus1=G2000SK7800_N274150_sec_4.2 kV=0.24 kVA=5.76 irradiance=1 Pmpp=4.8 %cutin=0.1 %cutout=0.1
New PVSystem.PV_157 phases=1 bus1=G2000SO1800_N274227_sec_3.3 kV=0.24 kVA=6.84 irradiance=1 Pmpp=5.7 %cutin=0.1 %cutout=0.1
New PVSystem.PV_158 phases=1 bus1=G2000VH9500_N283675_sec_9.2 kV=0.24 kVA=6.3697 irradiance=1 Pmpp=5.3081 %cutin=0.1 %cutout=0.1
New PVSystem.PV_159 phases=1 bus1=G2000WN3300_N283848_sec_2.2 kV=0.24 kVA=14.4 irradiance=1 Pmpp=12 %cutin=0.1 %cutout=0.1
New PVSystem.PV_160 phases=1 bus1=G2000XL9500_N283792_sec_1.1 kV=0.24 kVA=2.2125 irradiance=1 Pmpp=1.8438 %cutin=0.1 %cutout=0.1
New PVSystem.PV_161 phases=1 bus1=G2000YI1900_N283701_sec_1.1 kV=0.24 kVA=4.56 irradiance=1 Pmpp=3.8 %cutin=0.1 %cutout=0.1
New PVSystem.PV_162 phases=1 bus1=G2000YM2700_N283830_sec_1.1 kV=0.24 kVA=4.2 irradiance=1 Pmpp=3.5 %cutin=0.1 %cutout=0.1
New PVSystem.PV_163 phases=1 bus1=G2001RH0400_N274403_sec_7.2 kV=0.24 kVA=5.64 irradiance=1 Pmpp=4.7 %cutin=0.1 %cutout=0.1
New PVSystem.PV_164 phases=1 bus1=G2001SB6900_N274277_sec_5.3 kV=0.24 kVA=3.36 irradiance=1 Pmpp=2.8 %cutin=0.1 %cutout=0.1
New PVSystem.PV_165 phases=1 bus1=G2001TE3800_N274352_sec_4.3 kV=0.24 kVA=5.04 irradiance=1 Pmpp=4.2 %cutin=0.1 %cutout=0.1
New PVSystem.PV_166 phases=1 bus1=G2001TI4000_N284133_sec_3.2 kV=0.24 kVA=6.72 irradiance=1 Pmpp=5.6 %cutin=0.1 %cutout=0.1
New PVSystem.PV_167 phases=1 bus1=G2001TI4000_N284133_sec_4.2 kV=0.24 kVA=8.64 irradiance=1 Pmpp=7.2 %cutin=0.1 %cutout=0.1
New PVSystem.PV_168 phases=1 bus1=G2001UD7700_N284028_sec_4.3 kV=0.24 kVA=3.12 irradiance=1 Pmpp=2.6 %cutin=0.1 %cutout=0.1
New PVSystem.PV_169 phases=1 bus1=G2001UE3900_N284081_sec_3.3 kV=0.24 kVA=3 irradiance=1 Pmpp=2.5 %cutin=0.1 %cutout=0.1
New PVSystem.PV_170 phases=1 bus1=G2001VD4400_N284006_sec_10.3 kV=0.24 kVA=4.92 irradiance=1 Pmpp=4.1 %cutin=0.1 %cutout=0.1
New PVSystem.PV_171 phases=1 bus1=G2001VD6400_N283955_sec_1.3 kV=0.24 kVA=3.24 irradiance=1 Pmpp=2.7 %cutin=0.1 %cutout=0.1
New PVSystem.PV_172 phases=1 bus1=G2001VI5200_N284181_sec_6.2 kV=0.24 kVA=6.1777 irradiance=1 Pmpp=5.1481 %cutin=0.1 %cutout=0.1
New PVSystem.PV_173 phases=1 bus1=G2001WB3100_N283924_sec_2.3 kV=0.24 kVA=4.44 irradiance=1 Pmpp=3.7 %cutin=0.1 %cutout=0.1
New PVSystem.PV_174 phases=1 bus1=G2001WE0200_N284057_sec_7.3 kV=0.24 kVA=4.44 irradiance=1 Pmpp=3.7 %cutin=0.1 %cutout=0.1
New PVSystem.PV_175 phases=1 bus1=G2100AG8700_N283594_sec_6.3 kV=0.24 kVA=3.96 irradiance=1 Pmpp=3.3 %cutin=0.1 %cutout=0.1
New PVSystem.PV_176 phases=1 bus1=G2100AN4700_N283855_sec_2.3 kV=0.24 kVA=4.2 irradiance=1 Pmpp=3.5 %cutin=0.1 %cutout=0.1
New PVSystem.PV_177 phases=1 bus1=G2100BP7000_N283874_sec_4.3 kV=0.24 kVA=3.12 irradiance=1 Pmpp=2.6 %cutin=0.1 %cutout=0.1
New PVSystem.PV_178 phases=1 bus1=G2100CK4100_N283759_sec_1.2 kV=0.24 kVA=5.76 irradiance=1 Pmpp=4.8 %cutin=0.1 %cutout=0.1
New PVSystem.PV_179 phases=1 bus1=G2100CN4900_N283858_sec_9.3 kV=0.24 kVA=3.12 irradiance=1 Pmpp=2.6 %cutin=0.1 %cutout=0.1
New PVSystem.PV_180 phases=1 bus1=G2100DG1300_N283601_sec_10.3 kV=0.24 kVA=5.4 irradiance=1 Pmpp=4.5 %cutin=0.1 %cutout=0.1
New PVSystem.PV_181 phases=1 bus1=G2100DN3000_N283838_sec_18.3 kV=0.24 kVA=1.44 irradiance=1 Pmpp=1.2 %cutin=0.1 %cutout=0.1
New PVSystem.PV_182 phases=1 bus1=G2100DN4800_N283861_sec_59.3 kV=0.24 kVA=3.36 irradiance=1 Pmpp=2.8 %cutin=0.1 %cutout=0.1
New PVSystem.PV_183 phases=1 bus1=G2100DN4800_N283861_sec_60.3 kV=0.24 kVA=2.4 irradiance=1 Pmpp=2 %cutin=0.1 %cutout=0.1
New PVSystem.PV_184 phases=1 bus1=G2100EK1100_N292334_sec_5.2 kV=0.24 kVA=11.76 irradiance=1 Pmpp=9.8 %cutin=0.1 %cutout=0.1
New PVSystem.PV_185 phases=1 bus1=G2100EN2200_N292457_sec_28.3 kV=0.24 kVA=1.8 irradiance=1 Pmpp=1.5 %cutin=0.1 %cutout=0.1
New PVSystem.PV_186 phases=3 conn = delta bus1=G2100FE2600_N292234_sec_3.1.2.3 kV=0.48 kVA=7.32 irradiance=1 Pmpp=6.1 %cutin=0.1 %cutout=0.1
New PVSystem.PV_187 phases=3 conn = delta bus1=G2100FG0000_N292260_sec_1.1.2.3 kV=0.48 kVA=12 irradiance=1 Pmpp=10 %cutin=0.1 %cutout=0.1
New PVSystem.PV_188 phases=3 conn = delta bus1=G2100GO7200_N292517_sec_8.1.2.3 kV=0.48 kVA=22.56 irradiance=1 Pmpp=18.8 %cutin=0.1 %cutout=0.1
New PVSystem.PV_189 phases=1 bus1=G2100HM9900_N292433_sec_15.3 kV=0.24 kVA=2.04 irradiance=1 Pmpp=1.7 %cutin=0.1 %cutout=0.1
New PVSystem.PV_190 phases=1 bus1=G2100HN5600_N292453_sec_7.3 kV=0.24 kVA=2.16 irradiance=1 Pmpp=1.8 %cutin=0.1 %cutout=0.1
New PVSystem.PV_191 phases=1 bus1=G2100IM6700_N292430_sec_4.3 kV=0.24 kVA=0.48 irradiance=1 Pmpp=0.4 %cutin=0.1 %cutout=0.1
New PVSystem.PV_192 phases=1 bus1=G2100IM6700_N292430_sec_15.3 kV=0.24 kVA=5.88 irradiance=1 Pmpp=4.9 %cutin=0.1 %cutout=0.1
New PVSystem.PV_193 phases=1 bus1=G2100IN2700_N292475_sec_2.3 kV=0.24 kVA=1.2 irradiance=1 Pmpp=1 %cutin=0.1 %cutout=0.1
New PVSystem.PV_194 phases=1 bus1=G2100IN7700_N292438_sec_1.3 kV=0.24 kVA=0.48 irradiance=1 Pmpp=0.4 %cutin=0.1 %cutout=0.1
New PVSystem.PV_195 phases=1 bus1=G2100MN4700_N300558_sec_1.2 kV=0.24 kVA=6.84 irradiance=1 Pmpp=5.7 %cutin=0.1 %cutout=0.1
New PVSystem.PV_196 phases=3 conn = delta bus1=G2100NI4800_N300455_sec_6.1.2.3 kV=0.48 kVA=44.64 irradiance=1 Pmpp=37.2 %cutin=0.1 %cutout=0.1
New PVSystem.PV_197 phases=1 bus1=G2100NJ7400_N300463_sec_3.1 kV=0.24 kVA=1.08 irradiance=1 Pmpp=0.9 %cutin=0.1 %cutout=0.1
New PVSystem.PV_198 phases=1 bus1=G2100PO1400_N300580_sec_7.1 kV=0.24 kVA=3.5044 irradiance=1 Pmpp=2.9203 %cutin=0.1 %cutout=0.1
New PVSystem.PV_199 phases=1 bus1=G2100QO8900_N300587_sec_1.2 kV=0.24 kVA=12 irradiance=1 Pmpp=10 %cutin=0.1 %cutout=0.1
New PVSystem.PV_200 phases=1 bus1=G2100SL6900_N312340_sec_2.2 kV=0.24 kVA=9.7028 irradiance=1 Pmpp=8.0856 %cutin=0.1 %cutout=0.1
...
